10

Si		 0.00000 	 -3.53934 	 0.00000
Si		 0.00000 	 -2.18743 	 1.86074
Si		 0.00000 	 -0.00000 	 1.15000
Si		 0.00000 	 0.00000 	 -1.15000
Si		 0.00000 	 -2.18743 	 -1.86074
Si		 0.00000 	 2.18743 	 1.86074
Si		 0.00000 	 3.53934 	 0.00000
Si		 0.00000 	 2.18743 	 -1.86074
Si		 0.00000 	 0.00000 	 -1.15000
Si		 0.00000 	 -0.00000 	 1.15000