20
Si 2.3
Si 0.00000 0.00000 0.00000
Si 2.00000 0.00000 0.00000
Si 4.00000 0.00000 0.00000
Si 6.00000 0.00000 0.00000
Si 8.00000 0.00000 0.00000
Si 10.00000 0.00000 0.00000
Si 12.00000 0.00000 0.00000
Si 14.00000 0.00000 0.00000
Si 16.00000 0.00000 0.00000
Si 18.00000 0.00000 0.00000
Si 20.00000 0.00000 0.00000
Si 22.00000 0.00000 0.00000
Si 24.00000 0.00000 0.00000
Si 26.00000 0.00000 0.00000
Si 28.00000 0.00000 0.00000
Si 30.00000 0.00000 0.00000
Si 32.00000 0.00000 0.00000
Si 34.00000 0.00000 0.00000
Si 36.00000 0.00000 0.00000
Si 38.00000 0.00000 0.00000
