20
Si	2.3
Si	-0.2800000000000002	0.0	0.0
Si	1.8390000000000177	0.0	0.0
Si	3.919000000000009	0.0	0.0
Si	5.958999999999986	0.0	0.0
Si	7.978999999999992	0.0	0.0
Si	9.989000000000006	0.0	0.0
Si	11.994000000000003	0.0	0.0
Si	13.996000000000002	0.0	0.0
Si	15.997000000000002	0.0	0.0
Si	17.997999999999998	0.0	0.0
Si	19.997999999999998	0.0	0.0
Si	21.997999999999998	0.0	0.0
Si	23.997999999999998	0.0	0.0
Si	25.997999999999998	0.0	0.0
Si	27.997999999999998	0.0	0.0
Si	29.997999999999998	0.0	0.0
Si	31.997999999999994	0.0	0.0
Si	33.998000000000005	0.0	0.0
Si	36.0	0.0	0.0
Si	38.0	0.0	0.0
