10

Si       -3.80926111     -2.07483920     0.00001083
Si       -4.79801843     -0.00018138     0.00001115
Si       -3.80925017     2.07450482      0.00001083
Si       -1.61553641     2.73587635      0.00001290
Si       0.04683502      1.14967012      0.00002404
Si       2.21914061      1.86427155      -0.00000128
Si       3.53036865      -0.00018840     -0.00000258
Si       2.21919345      -1.86467458     -0.00000127
Si       0.04687928      -1.15016304     0.00002404
Si       -1.61556987     -2.73622882     0.00001290